*Heading
** Job name: guoxiJob Model name: GuoxiSuspensionBridge
** Generated by: Abaqus/CAE 6.14-1
*Preprint, echo=NO, model=NO, history=NO, contact=NO
**
** PARTS
**
*Part, name=PartAll
*Node
      1,         110.,   11.2705688,         3.75
      2,         110.,   7.73000002,         3.75
      3,         110.,   8.13000011,           0.
      4,   123.599998,   7.35500002,           0.
      5,   121.449997,   6.47300005,         3.75
      6,         105.,   13.9068193,         3.75
      7,         100.,   16.9039364,         3.75
      8,          95.,   20.4400005,         3.75
      9,          90.,     17.92136,         3.75
     10,          85.,    15.940382,         3.75
     11,          80.,   14.3199282,         3.75
     12,          75.,   13.0598192,         3.75
     13,          70.,    12.159874,         3.75
     14,          65.,   11.6199608,         3.75
     15,          60.,   11.4399996,         3.75
     16,          55.,   11.6199608,         3.75
     17,          50.,    12.159874,         3.75
     18,          45.,   13.0598192,         3.75
     19,          40.,   14.3199282,         3.75
     20,          35.,    15.940382,         3.75
** ... 557 like lines cut
*Element, type=T3D2
1, 1, 2
15, 1, 5
16, 6, 1
17, 7, 6
18, 8, 7
19, 9, 8
20, 10,  9
21, 11, 10
22, 12, 11
23, 13, 12
24, 14, 13
25, 15, 14
26, 16, 15
27, 17, 16
28, 18, 17
29, 19, 18
30, 20, 19
31, 21, 20
32, 22, 21
33, 23, 22
** ... 62 like lines cut
*Element, type=B32
2,   2, 312, 114
3, 114, 313, 115
4, 115, 314,   3
 5,   3, 315, 116
 6, 116, 316, 117
 7, 117, 317, 118
 8, 118, 318, 119
 9, 119, 319, 120
10, 120, 320, 121
11, 121, 321, 122
12, 122, 322, 123
13, 123, 323, 124
14, 124, 324,   4
37,  27, 325, 125
38, 125, 326, 126
39, 126, 327, 127
40, 127, 328,   3
41,  28, 329, 128
42, 128, 330, 129
43, 129, 331, 130
** ... 246 like lines cut
*Nset, nset=downTowerSet1-1
  67,  68, 236, 237, 462, 463, 464
*Elset, elset=downTowerSet1-1, generate
 189,  191,    1
*Nset, nset=downTowerSet1-2
  50,  51, 214, 215, 436, 437, 438
*Elset, elset=downTowerSet1-2, generate
 150,  152,    1
*Nset, nset=downTowerSet2-1
  65, 110, 310, 311, 575, 576, 577
*Elset, elset=downTowerSet2-1, generate
 324,  326,    1
*Nset, nset=downTowerSet2-2
  48,  91, 308, 309, 572, 573, 574
*Elset, elset=downTowerSet2-2, generate
 302,  304,    1
*Nset, nset=upTowerSet1-1
  66,  67, 228, 229, 230, 231, 232, 233, 234, 235, 453, 454, 455, 456, 457, 458
 459, 460, 461
*Elset, elset=upTowerSet1-1, generate
 180,  188,    1
*Nset, nset=upTowerSet1-2
  49,  50, 206, 207, 208, 209, 210, 211, 212, 213, 427, 428, 429, 430, 431, 432
 433, 434, 435
*Elset, elset=upTowerSet1-2, generate
 141,  149,    1
*Nset, nset=upTowerSet2-1
  22,  65, 216, 217, 218, 219, 220, 221, 222, 223, 439, 440, 441, 442, 443, 444
 445, 446, 447
*Elset, elset=upTowerSet2-1, generate
 166,  174,    1
*Nset, nset=upTowerSet2-2
   8,  48, 194, 195, 196, 197, 198, 199, 200, 201, 413, 414, 415, 416, 417, 418
 419, 420, 421
*Elset, elset=upTowerSet2-2, generate
 127,  135,    1
*Nset, nset=towerBeamSet1
  22,  66, 224, 225, 226, 227, 448, 449, 450, 451, 452
*Elset, elset=towerBeamSet1, generate
 175,  179,    1
*Nset, nset=towerBeamSet2
   8,  49, 202, 203, 204, 205, 422, 423, 424, 425, 426
*Elset, elset=towerBeamSet2, generate
 136,  140,    1
*Nset, nset=Set-1
  43,  44, 182, 183, 184, 399, 400, 401, 402
*Elset, elset=Set-1, generate
 111,  114,    1
*Nset, nset=girderSet1
  44,  45, 185, 186, 187, 188, 189, 190, 191, 192, 193, 403, 404, 405, 406, 407
 408, 409, 410, 411, 412
*Elset, elset=girderSet1, generate
 115,  124,    1
*Nset, nset=girderSet2
  43,  44, 182, 183, 184, 399, 400, 401, 402
*Elset, elset=girderSet2, generate
 111,  114,    1
*Nset, nset=girderSet3
  42,  43, 179, 180, 181, 395, 396, 397, 398
*Elset, elset=girderSet3, generate
 107,  110,    1
*Nset, nset=girderSet4
  41,  42, 173, 174, 175, 176, 177, 178, 388, 389, 390, 391, 392, 393, 394
*Elset, elset=girderSet4, generate
 100,  106,    1
*Nset, nset=girderSet5
  40,  41, 170, 171, 172, 384, 385, 386, 387
*Elset, elset=girderSet5, generate
 96,  99,   1
*Nset, nset=girderSet6
  39,  40, 167, 168, 169, 380, 381, 382, 383
*Elset, elset=girderSet6, generate
 92,  95,   1
*Nset, nset=girderSet7
  38,  39, 164, 165, 166, 376, 377, 378, 379
*Elset, elset=girderSet7, generate
 88,  91,   1
*Nset, nset=girderSet8
  37,  38, 161, 162, 163, 372, 373, 374, 375
*Elset, elset=girderSet8, generate
 84,  87,   1
*Nset, nset=girderSet9
  36,  37, 158, 159, 160, 368, 369, 370, 371
*Elset, elset=girderSet9, generate
 80,  83,   1
*Nset, nset=girderSet10
  35,  36, 155, 156, 157, 364, 365, 366, 367
*Elset, elset=girderSet10, generate
 76,  79,   1
*Nset, nset=girderSet11
  34,  35, 152, 153, 154, 360, 361, 362, 363
*Elset, elset=girderSet11, generate
 72,  75,   1
*Nset, nset=girderSet12
  33,  34, 149, 150, 151, 356, 357, 358, 359
*Elset, elset=girderSet12, generate
 68,  71,   1
*Nset, nset=girderSet13
  32,  33, 146, 147, 148, 352, 353, 354, 355
*Elset, elset=girderSet13, generate
 64,  67,   1
*Nset, nset=girderSet14
  31,  32, 143, 144, 145, 348, 349, 350, 351
*Elset, elset=girderSet14, generate
 60,  63,   1
*Nset, nset=girderSet15
  30,  31, 140, 141, 142, 344, 345, 346, 347
*Elset, elset=girderSet15, generate
 56,  59,   1
*Nset, nset=girderSet16
  29,  30, 137, 138, 139, 340, 341, 342, 343
*Elset, elset=girderSet16, generate
 52,  55,   1
*Nset, nset=girderSet17
  28,  29, 131, 132, 133, 134, 135, 136, 333, 334, 335, 336, 337, 338, 339
*Elset, elset=girderSet17, generate
 45,  51,   1
*Nset, nset=girderSet18
  27,  28, 128, 129, 130, 329, 330, 331, 332
*Elset, elset=girderSet18, generate
 41,  44,   1
*Nset, nset=girderSet19
   3,  27, 125, 126, 127, 325, 326, 327, 328
*Elset, elset=girderSet19, generate
 37,  40,   1
*Nset, nset=girderSet20
   3,   4, 116, 117, 118, 119, 120, 121, 122, 123, 124, 315, 316, 317, 318, 319
 320, 321, 322, 323, 324
*Elset, elset=girderSet20, generate
  5,  14,   1
*Nset, nset=girderRigidarm1-1
  44,  90, 304, 305, 566, 567, 568
*Elset, elset=girderRigidarm1-1, generate
 296,  298,    1
*Nset, nset=girderRigidarm1-2
  43,  89, 300, 301, 560, 561, 562
*Elset, elset=girderRigidarm1-2, generate
 290,  292,    1
*Nset, nset=girderRigidarm1-3
  42,  88, 296, 297, 554, 555, 556
*Elset, elset=girderRigidarm1-3, generate
 284,  286,    1
*Nset, nset=girderRigidarm1-4
  41,  87, 292, 293, 548, 549, 550
*Elset, elset=girderRigidarm1-4, generate
 278,  280,    1
*Nset, nset=girderRigidarm1-5
  40,  86, 288, 289, 542, 543, 544
*Elset, elset=girderRigidarm1-5, generate
 272,  274,    1
*Nset, nset=girderRigidarm1-6
  39,  85, 284, 285, 536, 537, 538
*Elset, elset=girderRigidarm1-6, generate
 266,  268,    1
*Nset, nset=girderRigidarm1-7
  38,  84, 280, 281, 530, 531, 532
*Elset, elset=girderRigidarm1-7, generate
 260,  262,    1
*Nset, nset=girderRigidarm1-8
  37,  83, 276, 277, 524, 525, 526
*Elset, elset=girderRigidarm1-8, generate
 254,  256,    1
*Nset, nset=girderRigidarm1-9
  36,  82, 272, 273, 518, 519, 520
*Elset, elset=girderRigidarm1-9, generate
 248,  250,    1
*Nset, nset=girderRigidarm1-10
  35,  81, 268, 269, 512, 513, 514
*Elset, elset=girderRigidarm1-10, generate
 242,  244,    1
*Nset, nset=girderRigidarm1-11
  34,  80, 264, 265, 506, 507, 508
*Elset, elset=girderRigidarm1-11, generate
 236,  238,    1
*Nset, nset=girderRigidarm1-12
  33,  79, 502
*Elset, elset=girderRigidarm1-12
 232,
*Nset, nset=girderRigidarm1-13
  32,  78, 258, 259, 496, 497, 498
*Elset, elset=girderRigidarm1-13, generate
 226,  228,    1
*Nset, nset=girderRigidarm1-14
  31,  77, 492
*Elset, elset=girderRigidarm1-14
 222,
*Nset, nset=girderRigidarm1-15
  30,  76, 252, 253, 486, 487, 488
*Elset, elset=girderRigidarm1-15, generate
 216,  218,    1
*Nset, nset=girderRigidarm1-16
  29,  75, 248, 249, 480, 481, 482
*Elset, elset=girderRigidarm1-16, generate
 210,  212,    1
*Nset, nset=girderRigidarm1-17
  28,  74, 244, 245, 474, 475, 476
*Elset, elset=girderRigidarm1-17, generate
 204,  206,    1
*Nset, nset=girderRigidarm1-18
  27,  73, 240, 241, 468, 469, 470
*Elset, elset=girderRigidarm1-18, generate
 198,  200,    1
*Nset, nset=girderRigidarm1-19
   3,  72, 238, 239, 465, 466, 467
*Elset, elset=girderRigidarm1-19, generate
 195,  197,    1
*Nset, nset=girderRigidarm2-1
  44,  71, 306, 307, 569, 570, 571
*Elset, elset=girderRigidarm2-1, generate
 299,  301,    1
*Nset, nset=girderRigidarm2-2
  43,  70, 302, 303, 563, 564, 565
*Elset, elset=girderRigidarm2-2, generate
 293,  295,    1
*Nset, nset=girderRigidarm2-3
  42,  69, 298, 299, 557, 558, 559
*Elset, elset=girderRigidarm2-3, generate
 287,  289,    1
*Nset, nset=girderRigidarm2-4
  41,  64, 294, 295, 551, 552, 553
*Elset, elset=girderRigidarm2-4, generate
 281,  283,    1
*Nset, nset=girderRigidarm2-5
  40,  63, 290, 291, 545, 546, 547
*Elset, elset=girderRigidarm2-5, generate
 275,  277,    1
*Nset, nset=girderRigidarm2-6
  39,  62, 286, 287, 539, 540, 541
*Elset, elset=girderRigidarm2-6, generate
 269,  271,    1
*Nset, nset=girderRigidarm2-7
  38,  61, 282, 283, 533, 534, 535
*Elset, elset=girderRigidarm2-7, generate
 263,  265,    1
*Nset, nset=girderRigidarm2-8
  37,  60, 278, 279, 527, 528, 529
*Elset, elset=girderRigidarm2-8, generate
 257,  259,    1
*Nset, nset=girderRigidarm2-9
  36,  59, 274, 275, 521, 522, 523
*Elset, elset=girderRigidarm2-9, generate
 251,  253,    1
*Nset, nset=girderRigidarm2-10
  35,  58, 270, 271, 515, 516, 517
*Elset, elset=girderRigidarm2-10, generate
 245,  247,    1
*Nset, nset=girderRigidarm2-11
  34,  57, 266, 267, 509, 510, 511
*Elset, elset=girderRigidarm2-11, generate
 239,  241,    1
*Nset, nset=girderRigidarm2-12
  33,  56, 262, 263, 503, 504, 505
*Elset, elset=girderRigidarm2-12, generate
 233,  235,    1
*Nset, nset=girderRigidarm2-13
  32,  55, 260, 261, 499, 500, 501
*Elset, elset=girderRigidarm2-13, generate
 229,  231,    1
*Nset, nset=girderRigidarm2-14
  31,  54, 256, 257, 493, 494, 495
*Elset, elset=girderRigidarm2-14, generate
 223,  225,    1
*Nset, nset=girderRigidarm2-15
  30,  53, 254, 255, 489, 490, 491
*Elset, elset=girderRigidarm2-15, generate
 219,  221,    1
*Nset, nset=girderRigidarm2-16
  29,  52, 250, 251, 483, 484, 485
*Elset, elset=girderRigidarm2-16, generate
 213,  215,    1
*Nset, nset=girderRigidarm2-17
  28,  47, 246, 247, 477, 478, 479
*Elset, elset=girderRigidarm2-17, generate
 207,  209,    1
*Nset, nset=girderRigidarm2-18
  27,  46, 242, 243, 471, 472, 473
*Elset, elset=girderRigidarm2-18, generate
 201,  203,    1
*Nset, nset=girderRigidarm2-19
   2,   3, 114, 115, 312, 313, 314
*Elset, elset=girderRigidarm2-19, generate
 2,  4,  1
*Nset, nset=girderRigidarmWhole1
  44,  71,  90, 304, 305, 306, 307, 566, 567, 568, 569, 570, 571
*Elset, elset=girderRigidarmWhole1, generate
 296,  301,    1
*Nset, nset=girderRigidarmWhole2
  43,  70,  89, 300, 301, 302, 303, 560, 561, 562, 563, 564, 565
*Elset, elset=girderRigidarmWhole2, generate
 290,  295,    1
*Nset, nset=girderRigidarmWhole3
  42,  69,  88, 296, 297, 298, 299, 554, 555, 556, 557, 558, 559
*Elset, elset=girderRigidarmWhole3, generate
 284,  289,    1
*Nset, nset=girderRigidarmWhole4
  41,  64,  87, 292, 293, 294, 295, 548, 549, 550, 551, 552, 553
*Elset, elset=girderRigidarmWhole4, generate
 278,  283,    1
*Nset, nset=girderRigidarmWhole5
  40,  63,  86, 288, 289, 290, 291, 542, 543, 544, 545, 546, 547
*Elset, elset=girderRigidarmWhole5, generate
 272,  277,    1
*Nset, nset=girderRigidarmWhole6
  39,  62,  85, 284, 285, 286, 287, 536, 537, 538, 539, 540, 541
*Elset, elset=girderRigidarmWhole6, generate
 266,  271,    1
*Nset, nset=girderRigidarmWhole7
  38,  61,  84, 280, 281, 282, 283, 530, 531, 532, 533, 534, 535
*Elset, elset=girderRigidarmWhole7, generate
 260,  265,    1
*Nset, nset=girderRigidarmWhole8
  37,  60,  83, 276, 277, 278, 279, 524, 525, 526, 527, 528, 529
*Elset, elset=girderRigidarmWhole8, generate
 254,  259,    1
*Nset, nset=girderRigidarmWhole9
  36,  59,  82, 272, 273, 274, 275, 518, 519, 520, 521, 522, 523
*Elset, elset=girderRigidarmWhole9, generate
 248,  253,    1
*Nset, nset=girderRigidarmWhole10
  35,  58,  81, 268, 269, 270, 271, 512, 513, 514, 515, 516, 517
*Elset, elset=girderRigidarmWhole10, generate
 242,  247,    1
*Nset, nset=girderRigidarmWhole11
  34,  57,  80, 264, 265, 266, 267, 506, 507, 508, 509, 510, 511
*Elset, elset=girderRigidarmWhole11, generate
 236,  241,    1
*Nset, nset=girderRigidarmWhole12
  33,  56,  79, 262, 263, 502, 503, 504, 505
*Elset, elset=girderRigidarmWhole12, generate
 232,  235,    1
*Nset, nset=girderRigidarmWhole13
  32,  55,  78, 258, 259, 260, 261, 496, 497, 498, 499, 500, 501
*Elset, elset=girderRigidarmWhole13, generate
 226,  231,    1
*Nset, nset=girderRigidarmWhole14
  31,  54,  77, 256, 257, 492, 493, 494, 495
*Elset, elset=girderRigidarmWhole14, generate
 222,  225,    1
*Nset, nset=girderRigidarmWhole15
  30,  53,  76, 252, 253, 254, 255, 486, 487, 488, 489, 490, 491
*Elset, elset=girderRigidarmWhole15, generate
 216,  221,    1
*Nset, nset=girderRigidarmWhole16
  29,  52,  75, 248, 249, 250, 251, 480, 481, 482, 483, 484, 485
*Elset, elset=girderRigidarmWhole16, generate
 210,  215,    1
*Nset, nset=girderRigidarmWhole17
  28,  47,  74, 244, 245, 246, 247, 474, 475, 476, 477, 478, 479
*Elset, elset=girderRigidarmWhole17, generate
 204,  209,    1
*Nset, nset=girderRigidarmWhole18
  27,  46,  73, 240, 241, 242, 243, 468, 469, 470, 471, 472, 473
*Elset, elset=girderRigidarmWhole18, generate
 198,  203,    1
*Nset, nset=girderRigidarmWhole19
   2,   3,  72, 114, 115, 238, 239, 312, 313, 314, 465, 466, 467
*Elset, elset=girderRigidarmWhole19
   2,   3,   4, 195, 196, 197
*Nset, nset=cableSet1-1
 108, 109
*Elset, elset=cableSet1-1
 323,
*Nset, nset=cableSet1-2
 107, 108
*Elset, elset=cableSet1-2
 322,
*Nset, nset=cableSet1-3
 106, 107
*Elset, elset=cableSet1-3
 321,
*Nset, nset=cableSet1-4
  66, 106
*Elset, elset=cableSet1-4
 320,
*Nset, nset=cableSet1-5
  66, 105
*Elset, elset=cableSet1-5
 319,
*Nset, nset=cableSet1-6
 104, 105
*Elset, elset=cableSet1-6
 318,
*Nset, nset=cableSet1-7
 103, 104
*Elset, elset=cableSet1-7
 317,
*Nset, nset=cableSet1-8
 102, 103
*Elset, elset=cableSet1-8
 316,
*Nset, nset=cableSet1-9
 101, 102
*Elset, elset=cableSet1-9
 315,
*Nset, nset=cableSet1-10
 100, 101
*Elset, elset=cableSet1-10
 314,
*Nset, nset=cableSet1-11
  99, 100
*Elset, elset=cableSet1-11
 313,
*Nset, nset=cableSet1-12
 98, 99
*Elset, elset=cableSet1-12
 312,
*Nset, nset=cableSet1-13
 97, 98
*Elset, elset=cableSet1-13
 311,
*Nset, nset=cableSet1-14
 96, 97
*Elset, elset=cableSet1-14
 310,
*Nset, nset=cableSet1-15
 95, 96
*Elset, elset=cableSet1-15
 309,
*Nset, nset=cableSet1-16
 94, 95
*Elset, elset=cableSet1-16
 308,
*Nset, nset=cableSet1-17
 93, 94
*Elset, elset=cableSet1-17
 307,
*Nset, nset=cableSet1-18
 49, 93
*Elset, elset=cableSet1-18
 306,
*Nset, nset=cableSet1-19
 49, 92
*Elset, elset=cableSet1-19
 305,
*Nset, nset=cableSet1-20
  92, 113
*Elset, elset=cableSet1-20
 332,
*Nset, nset=cableSet1-21
 111, 113
*Elset, elset=cableSet1-21
 330,
*Nset, nset=cableSet1-22
 111, 112
*Elset, elset=cableSet1-22
 328,
*Nset, nset=cableSet2-1
 25, 26
*Elset, elset=cableSet2-1
 36,
*Nset, nset=cableSet2-2
 24, 25
*Elset, elset=cableSet2-2
 35,
*Nset, nset=cableSet2-3
 23, 24
*Elset, elset=cableSet2-3
 34,
*Nset, nset=cableSet2-4
 22, 23
*Elset, elset=cableSet2-4
 33,
*Nset, nset=cableSet2-5
 21, 22
*Elset, elset=cableSet2-5
 32,
*Nset, nset=cableSet2-6
 20, 21
*Elset, elset=cableSet2-6
 31,
*Nset, nset=cableSet2-7
 19, 20
*Elset, elset=cableSet2-7
 30,
*Nset, nset=cableSet2-8
 18, 19
*Elset, elset=cableSet2-8
 29,
*Nset, nset=cableSet2-9
 17, 18
*Elset, elset=cableSet2-9
 28,
*Nset, nset=cableSet2-10
 16, 17
*Elset, elset=cableSet2-10
 27,
*Nset, nset=cableSet2-11
 15, 16
*Elset, elset=cableSet2-11
 26,
*Nset, nset=cableSet2-12
 14, 15
*Elset, elset=cableSet2-12
 25,
*Nset, nset=cableSet2-13
 13, 14
*Elset, elset=cableSet2-13
 24,
*Nset, nset=cableSet2-14
 12, 13
*Elset, elset=cableSet2-14
 23,
*Nset, nset=cableSet2-15
 11, 12
*Elset, elset=cableSet2-15
 22,
*Nset, nset=cableSet2-16
 10, 11
*Elset, elset=cableSet2-16
 21,
*Nset, nset=cableSet2-17
  9, 10
*Elset, elset=cableSet2-17
 20,
*Nset, nset=cableSet2-18
 8, 9
*Elset, elset=cableSet2-18
 19,
*Nset, nset=cableSet2-19
 7, 8
*Elset, elset=cableSet2-19
 18,
*Nset, nset=cableSet2-20
 6, 7
*Elset, elset=cableSet2-20
 17,
*Nset, nset=cableSet2-21
 1, 6
*Elset, elset=cableSet2-21
 16,
*Nset, nset=cableSet2-22
 1, 5
*Elset, elset=cableSet2-22
 15,
*Nset, nset=suspenderSet1-1
  90, 108
*Elset, elset=suspenderSet1-1
 348,
*Nset, nset=suspenderSet1-2
  89, 107
*Elset, elset=suspenderSet1-2
 347,
*Nset, nset=suspenderSet1-3
  88, 106
*Elset, elset=suspenderSet1-3
 346,
*Nset, nset=suspenderSet1-4
  87, 105
*Elset, elset=suspenderSet1-4
 345,
*Nset, nset=suspenderSet1-5
  86, 104
*Elset, elset=suspenderSet1-5
 344,
*Nset, nset=suspenderSet1-6
  85, 103
*Elset, elset=suspenderSet1-6
 343,
*Nset, nset=suspenderSet1-7
  84, 102
*Elset, elset=suspenderSet1-7
 342,
*Nset, nset=suspenderSet1-8
  83, 101
*Elset, elset=suspenderSet1-8
 341,
*Nset, nset=suspenderSet1-9
  82, 100
*Elset, elset=suspenderSet1-9
 340,
*Nset, nset=suspenderSet1-10
 81, 99
*Elset, elset=suspenderSet1-10
 339,
*Nset, nset=suspenderSet1-11
 80, 98
*Elset, elset=suspenderSet1-11
 338,
*Nset, nset=suspenderSet1-12
 79, 97
*Elset, elset=suspenderSet1-12
 337,
*Nset, nset=suspenderSet1-13
 78, 96
*Elset, elset=suspenderSet1-13
 336,
*Nset, nset=suspenderSet1-14
 77, 95
*Elset, elset=suspenderSet1-14
 335,
*Nset, nset=suspenderSet1-15
 76, 94
*Elset, elset=suspenderSet1-15
 334,
*Nset, nset=suspenderSet1-16
 75, 93
*Elset, elset=suspenderSet1-16
 333,
*Nset, nset=suspenderSet1-17
 74, 92
*Elset, elset=suspenderSet1-17
 331,
*Nset, nset=suspenderSet1-18
  73, 113
*Elset, elset=suspenderSet1-18
 329,
*Nset, nset=suspenderSet1-19
  72, 111
*Elset, elset=suspenderSet1-19
 327,
*Nset, nset=suspenderSet2-1
 25, 71
*Elset, elset=suspenderSet2-1
 194,
*Nset, nset=suspenderSet2-2
 24, 70
*Elset, elset=suspenderSet2-2
 193,
*Nset, nset=suspenderSet2-3
 23, 69
*Elset, elset=suspenderSet2-3
 192,
*Nset, nset=suspenderSet2-4
 21, 64
*Elset, elset=suspenderSet2-4
 165,
*Nset, nset=suspenderSet2-5
 20, 63
*Elset, elset=suspenderSet2-5
 164,
*Nset, nset=suspenderSet2-6
 19, 62
*Elset, elset=suspenderSet2-6
 163,
*Nset, nset=suspenderSet2-7
 18, 61
*Elset, elset=suspenderSet2-7
 162,
*Nset, nset=suspenderSet2-8
 17, 60
*Elset, elset=suspenderSet2-8
 161,
*Nset, nset=suspenderSet2-9
 16, 59
*Elset, elset=suspenderSet2-9
 160,
*Nset, nset=suspenderSet2-10
 15, 58
*Elset, elset=suspenderSet2-10
 159,
*Nset, nset=suspenderSet2-11
 14, 57
*Elset, elset=suspenderSet2-11
 158,
*Nset, nset=suspenderSet2-12
 13, 56
*Elset, elset=suspenderSet2-12
 157,
*Nset, nset=suspenderSet2-13
 12, 55
*Elset, elset=suspenderSet2-13
 156,
*Nset, nset=suspenderSet2-14
 11, 54
*Elset, elset=suspenderSet2-14
 155,
*Nset, nset=suspenderSet2-15
 10, 53
*Elset, elset=suspenderSet2-15
 154,
*Nset, nset=suspenderSet2-16
  9, 52
*Elset, elset=suspenderSet2-16
 153,
*Nset, nset=suspenderSet2-17
  7, 47
*Elset, elset=suspenderSet2-17
 126,
*Nset, nset=suspenderSet2-18
  6, 46
*Elset, elset=suspenderSet2-18
 125,
*Nset, nset=suspenderSet2-19
 1, 2
*Elset, elset=suspenderSet2-19
 1,
** Section: suspenderSection
*Solid Section, elset=suspenderSet2-19, material=suspenderMaterial
0.00302335,
** Section: rigidArmSection  Profile: rigidArmProfile
*Beam General Section, elset=girderRigidarm2-19, poisson = 0.2, density=2549., section=CIRC
0.1
-1.,0.,1.
 6.9e+11, 2.875e+11,     1e-05
** Section: A-ASection  Profile: A-AProfile
*Beam General Section, elset=girderSet20, poisson = 0.2, density=2549., section=GENERAL
3.24, 0.154, 0., 21.7, 0.264
0.,0.,-1.
 3.45e+10, 1.4375e+10,      1e-05
** Section: cableSection
*Solid Section, elset=cableSet2-22, material=cableMaterial
0.0359345,
** Section: cableSection
*Solid Section, elset=cableSet2-21, material=cableMaterial
0.0359345,
** Section: cableSection
*Solid Section, elset=cableSet2-20, material=cableMaterial
0.0359345,
** Section: cableSection
*Solid Section, elset=cableSet2-19, material=cableMaterial
0.0359345,
** Section: cableSection
*Solid Section, elset=cableSet2-18, material=cableMaterial
0.0359345,
** Section: cableSection
*Solid Section, elset=cableSet2-17, material=cableMaterial
0.0359345,
** Section: cableSection
*Solid Section, elset=cableSet2-16, material=cableMaterial
0.0359345,
** Section: cableSection
*Solid Section, elset=cableSet2-15, material=cableMaterial
0.0359345,
** Section: cableSection
*Solid Section, elset=cableSet2-14, material=cableMaterial
0.0359345,
** Section: cableSection
*Solid Section, elset=cableSet2-13, material=cableMaterial
0.0359345,
** Section: cableSection
*Solid Section, elset=cableSet2-12, material=cableMaterial
0.0359345,
** Section: cableSection
*Solid Section, elset=cableSet2-11, material=cableMaterial
0.0359345,
** Section: cableSection
*Solid Section, elset=cableSet2-10, material=cableMaterial
0.0359345,
** Section: cableSection
*Solid Section, elset=cableSet2-9, material=cableMaterial
0.0359345,
** Section: cableSection
*Solid Section, elset=cableSet2-8, material=cableMaterial
0.0359345,
** Section: cableSection
*Solid Section, elset=cableSet2-7, material=cableMaterial
0.0359345,
** Section: cableSection
*Solid Section, elset=cableSet2-6, material=cableMaterial
0.0359345,
** Section: cableSection
*Solid Section, elset=cableSet2-5, material=cableMaterial
0.0359345,
** Section: cableSection
*Solid Section, elset=cableSet2-4, material=cableMaterial
0.0359345,
** Section: cableSection
*Solid Section, elset=cableSet2-3, material=cableMaterial
0.0359345,
** Section: cableSection
*Solid Section, elset=cableSet2-2, material=cableMaterial
0.0359345,
** Section: cableSection
*Solid Section, elset=cableSet2-1, material=cableMaterial
0.0359345,
** Section: A-ASection  Profile: A-AProfile
*Beam General Section, elset=girderSet19, poisson = 0.2, density=2549., section=GENERAL
3.24, 0.154, 0., 21.7, 0.264
0.,0.,-1.
 3.45e+10, 1.4375e+10,      1e-05
** Section: A-ASection  Profile: A-AProfile
*Beam General Section, elset=girderSet18, poisson = 0.2, density=2549., section=GENERAL
3.24, 0.154, 0., 21.7, 0.264
0.,0.,-1.
 3.45e+10, 1.4375e+10,      1e-05
** Section: A-ASection  Profile: A-AProfile
*Beam General Section, elset=girderSet17, poisson = 0.2, density=2549., section=GENERAL
3.24, 0.154, 0., 21.7, 0.264
0.,0.,-1.
 3.45e+10, 1.4375e+10,      1e-05
** Section: A-ASection  Profile: A-AProfile
*Beam General Section, elset=girderSet16, poisson = 0.2, density=2549., section=GENERAL
3.24, 0.154, 0., 21.7, 0.264
0.,0.,-1.
 3.45e+10, 1.4375e+10,      1e-05
** Section: A-ASection  Profile: A-AProfile
*Beam General Section, elset=girderSet15, poisson = 0.2, density=2549., section=GENERAL
3.24, 0.154, 0., 21.7, 0.264
0.,0.,-1.
 3.45e+10, 1.4375e+10,      1e-05
** Section: A-ASection  Profile: A-AProfile
*Beam General Section, elset=girderSet14, poisson = 0.2, density=2549., section=GENERAL
3.24, 0.154, 0., 21.7, 0.264
0.,0.,-1.
 3.45e+10, 1.4375e+10,      1e-05
** Section: A-ASection  Profile: A-AProfile
*Beam General Section, elset=girderSet13, poisson = 0.2, density=2549., section=GENERAL
3.24, 0.154, 0., 21.7, 0.264
0.,0.,-1.
 3.45e+10, 1.4375e+10,      1e-05
** Section: A-ASection  Profile: A-AProfile
*Beam General Section, elset=girderSet12, poisson = 0.2, density=2549., section=GENERAL
3.24, 0.154, 0., 21.7, 0.264
0.,0.,-1.
 3.45e+10, 1.4375e+10,      1e-05
** Section: A-ASection  Profile: A-AProfile
*Beam General Section, elset=girderSet11, poisson = 0.2, density=2549., section=GENERAL
3.24, 0.154, 0., 21.7, 0.264
0.,0.,-1.
 3.45e+10, 1.4375e+10,      1e-05
** Section: A-ASection  Profile: A-AProfile
*Beam General Section, elset=girderSet10, poisson = 0.2, density=2549., section=GENERAL
3.24, 0.154, 0., 21.7, 0.264
0.,0.,-1.
 3.45e+10, 1.4375e+10,      1e-05
** Section: A-ASection  Profile: A-AProfile
*Beam General Section, elset=girderSet9, poisson = 0.2, density=2549., section=GENERAL
3.24, 0.154, 0., 21.7, 0.264
0.,0.,-1.
 3.45e+10, 1.4375e+10,      1e-05
** Section: A-ASection  Profile: A-AProfile
*Beam General Section, elset=girderSet8, poisson = 0.2, density=2549., section=GENERAL
3.24, 0.154, 0., 21.7, 0.264
0.,0.,-1.
 3.45e+10, 1.4375e+10,      1e-05
** Section: A-ASection  Profile: A-AProfile
*Beam General Section, elset=girderSet7, poisson = 0.2, density=2549., section=GENERAL
3.24, 0.154, 0., 21.7, 0.264
0.,0.,-1.
 3.45e+10, 1.4375e+10,      1e-05
** Section: A-ASection  Profile: A-AProfile
*Beam General Section, elset=girderSet6, poisson = 0.2, density=2549., section=GENERAL
3.24, 0.154, 0., 21.7, 0.264
0.,0.,-1.
 3.45e+10, 1.4375e+10,      1e-05
** Section: A-ASection  Profile: A-AProfile
*Beam General Section, elset=girderSet5, poisson = 0.2, density=2549., section=GENERAL
3.24, 0.154, 0., 21.7, 0.264
0.,0.,-1.
 3.45e+10, 1.4375e+10,      1e-05
** Section: A-ASection  Profile: A-AProfile
*Beam General Section, elset=girderSet4, poisson = 0.2, density=2549., section=GENERAL
3.24, 0.154, 0., 21.7, 0.264
0.,0.,-1.
 3.45e+10, 1.4375e+10,      1e-05
** Section: A-ASection  Profile: A-AProfile
*Beam General Section, elset=girderSet3, poisson = 0.2, density=2549., section=GENERAL
3.24, 0.154, 0., 21.7, 0.264
0.,0.,-1.
 3.45e+10, 1.4375e+10,      1e-05
** Section: A-ASection  Profile: A-AProfile
*Beam General Section, elset=girderSet2, poisson = 0.2, density=2549., section=GENERAL
3.24, 0.154, 0., 21.7, 0.264
0.,0.,-1.
 3.45e+10, 1.4375e+10,      1e-05
** Section: A-ASection  Profile: A-AProfile
*Beam General Section, elset=girderSet1, poisson = 0.2, density=2549., section=GENERAL
3.24, 0.154, 0., 21.7, 0.264
0.,0.,-1.
 3.45e+10, 1.4375e+10,      1e-05
** Section: suspenderSection
*Solid Section, elset=suspenderSet2-18, material=suspenderMaterial
0.00302335,
** Section: suspenderSection
*Solid Section, elset=suspenderSet2-17, material=suspenderMaterial
0.00302335,
** Section: upTowerSection  Profile: upTowerProfile
*Beam General Section, elset=upTowerSet2-2, poisson = 0.2, density=2549., section=RECT
0.9, 1.4
0.,0.,-1.
 3.45e+10, 1.4375e+10,      1e-05
** Section: towerBeamSection  Profile: towerBeamProfile
*Beam General Section, elset=towerBeamSet2, poisson = 0.2, density=2549., section=RECT
0.8, 0.76
-1.,0.,0.
 3.45e+10, 1.4375e+10,      1e-05
** Section: upTowerSection  Profile: upTowerProfile
*Beam General Section, elset=upTowerSet1-2, poisson = 0.2, density=2549., section=RECT
0.9, 1.4
0.,0.,-1.
 3.45e+10, 1.4375e+10,      1e-05
** Section: downTowerSection  Profile: downTowerProfile
*Beam General Section, elset=downTowerSet1-2, poisson = 0.2, density=2549., section=RECT
1.3, 1.6
0.,0.,-1.
 3.45e+10, 1.4375e+10,      1e-05
** Section: suspenderSection
*Solid Section, elset=suspenderSet2-16, material=suspenderMaterial
0.00302335,
** Section: suspenderSection
*Solid Section, elset=suspenderSet2-15, material=suspenderMaterial
0.00302335,
** Section: suspenderSection
*Solid Section, elset=suspenderSet2-14, material=suspenderMaterial
0.00302335,
** Section: suspenderSection
*Solid Section, elset=suspenderSet2-13, material=suspenderMaterial
0.00302335,
** Section: suspenderSection
*Solid Section, elset=suspenderSet2-12, material=suspenderMaterial
0.00302335,
** Section: suspenderSection
*Solid Section, elset=suspenderSet2-11, material=suspenderMaterial
0.00302335,
** Section: suspenderSection
*Solid Section, elset=suspenderSet2-10, material=suspenderMaterial
0.00302335,
** Section: suspenderSection
*Solid Section, elset=suspenderSet2-9, material=suspenderMaterial
0.00302335,
** Section: suspenderSection
*Solid Section, elset=suspenderSet2-8, material=suspenderMaterial
0.00302335,
** Section: suspenderSection
*Solid Section, elset=suspenderSet2-7, material=suspenderMaterial
0.00302335,
** Section: suspenderSection
*Solid Section, elset=suspenderSet2-6, material=suspenderMaterial
0.00302335,
** Section: suspenderSection
*Solid Section, elset=suspenderSet2-5, material=suspenderMaterial
0.00302335,
** Section: suspenderSection
*Solid Section, elset=suspenderSet2-4, material=suspenderMaterial
0.00302335,
** Section: upTowerSection  Profile: upTowerProfile
*Beam General Section, elset=upTowerSet2-1, poisson = 0.2, density=2549., section=RECT
0.9, 1.4
0.,0.,-1.
 3.45e+10, 1.4375e+10,      1e-05
** Section: towerBeamSection  Profile: towerBeamProfile
*Beam General Section, elset=towerBeamSet1, poisson = 0.2, density=2549., section=RECT
0.8, 0.76
-1.,0.,0.
 3.45e+10, 1.4375e+10,      1e-05
** Section: upTowerSection  Profile: upTowerProfile
*Beam General Section, elset=upTowerSet1-1, poisson = 0.2, density=2549., section=RECT
0.9, 1.4
0.,0.,-1.
 3.45e+10, 1.4375e+10,      1e-05
** Section: downTowerSection  Profile: downTowerProfile
*Beam General Section, elset=downTowerSet1-1, poisson = 0.2, density=2549., section=RECT
1.3, 1.6
0.,0.,-1.
 3.45e+10, 1.4375e+10,      1e-05
** Section: suspenderSection
*Solid Section, elset=suspenderSet2-3, material=suspenderMaterial
0.00302335,
** Section: suspenderSection
*Solid Section, elset=suspenderSet2-2, material=suspenderMaterial
0.00302335,
** Section: suspenderSection
*Solid Section, elset=suspenderSet2-1, material=suspenderMaterial
0.00302335,
** Section: rigidArmSection  Profile: rigidArmProfile
*Beam General Section, elset=girderRigidarm1-19, poisson = 0.2, density=2549., section=CIRC
0.1
-1.,0.,1.
 6.9e+11, 2.875e+11,     1e-05
** Section: rigidArmSection  Profile: rigidArmProfile
*Beam General Section, elset=girderRigidarm1-18, poisson = 0.2, density=2549., section=CIRC
0.1
-1.,0.,1.
 6.9e+11, 2.875e+11,     1e-05
** Section: rigidArmSection  Profile: rigidArmProfile
*Beam General Section, elset=girderRigidarm2-18, poisson = 0.2, density=2549., section=CIRC
0.1
-1.,0.,1.
 6.9e+11, 2.875e+11,     1e-05
** Section: rigidArmSection  Profile: rigidArmProfile
*Beam General Section, elset=girderRigidarm1-17, poisson = 0.2, density=2549., section=CIRC
0.1
-1.,0.,1.
 6.9e+11, 2.875e+11,     1e-05
** Section: rigidArmSection  Profile: rigidArmProfile
*Beam General Section, elset=girderRigidarm2-17, poisson = 0.2, density=2549., section=CIRC
0.1
-1.,0.,1.
 6.9e+11, 2.875e+11,     1e-05
** Section: rigidArmSection  Profile: rigidArmProfile
*Beam General Section, elset=girderRigidarm1-16, poisson = 0.2, density=2549., section=CIRC
0.1
-1.,0.,1.
 6.9e+11, 2.875e+11,     1e-05
** Section: rigidArmSection  Profile: rigidArmProfile
*Beam General Section, elset=girderRigidarm2-16, poisson = 0.2, density=2549., section=CIRC
0.1
-1.,0.,1.
 6.9e+11, 2.875e+11,     1e-05
** Section: rigidArmSection  Profile: rigidArmProfile
*Beam General Section, elset=girderRigidarm1-15, poisson = 0.2, density=2549., section=CIRC
0.1
-1.,0.,1.
 6.9e+11, 2.875e+11,     1e-05
** Section: rigidArmSection  Profile: rigidArmProfile
*Beam General Section, elset=girderRigidarm2-15, poisson = 0.2, density=2549., section=CIRC
0.1
-1.,0.,1.
 6.9e+11, 2.875e+11,     1e-05
** Section: rigidArmSection  Profile: rigidArmProfile
*Beam General Section, elset=girderRigidarm1-14, poisson = 0.2, density=2549., section=CIRC
0.1
-1.,0.,1.
 6.9e+11, 2.875e+11,     1e-05
** Section: rigidArmSection  Profile: rigidArmProfile
*Beam General Section, elset=girderRigidarm2-14, poisson = 0.2, density=2549., section=CIRC
0.1
-1.,0.,1.
 6.9e+11, 2.875e+11,     1e-05
** Section: rigidArmSection  Profile: rigidArmProfile
*Beam General Section, elset=girderRigidarm1-13, poisson = 0.2, density=2549., section=CIRC
0.1
-1.,0.,1.
 6.9e+11, 2.875e+11,     1e-05
** Section: rigidArmSection  Profile: rigidArmProfile
*Beam General Section, elset=girderRigidarm2-13, poisson = 0.2, density=2549., section=CIRC
0.1
-1.,0.,1.
 6.9e+11, 2.875e+11,     1e-05
** Section: rigidArmSection  Profile: rigidArmProfile
*Beam General Section, elset=girderRigidarm1-12, poisson = 0.2, density=2549., section=CIRC
0.1
-1.,0.,1.
 6.9e+11, 2.875e+11,     1e-05
** Section: rigidArmSection  Profile: rigidArmProfile
*Beam General Section, elset=girderRigidarm2-12, poisson = 0.2, density=2549., section=CIRC
0.1
-1.,0.,1.
 6.9e+11, 2.875e+11,     1e-05
** Section: rigidArmSection  Profile: rigidArmProfile
*Beam General Section, elset=girderRigidarm1-11, poisson = 0.2, density=2549., section=CIRC
0.1
-1.,0.,1.
 6.9e+11, 2.875e+11,     1e-05
** Section: rigidArmSection  Profile: rigidArmProfile
*Beam General Section, elset=girderRigidarm2-11, poisson = 0.2, density=2549., section=CIRC
0.1
-1.,0.,1.
 6.9e+11, 2.875e+11,     1e-05
** Section: rigidArmSection  Profile: rigidArmProfile
*Beam General Section, elset=girderRigidarm1-10, poisson = 0.2, density=2549., section=CIRC
0.1
-1.,0.,1.
 6.9e+11, 2.875e+11,     1e-05
** Section: rigidArmSection  Profile: rigidArmProfile
*Beam General Section, elset=girderRigidarm2-10, poisson = 0.2, density=2549., section=CIRC
0.1
-1.,0.,1.
 6.9e+11, 2.875e+11,     1e-05
** Section: rigidArmSection  Profile: rigidArmProfile
*Beam General Section, elset=girderRigidarm1-9, poisson = 0.2, density=2549., section=CIRC
0.1
-1.,0.,1.
 6.9e+11, 2.875e+11,     1e-05
** Section: rigidArmSection  Profile: rigidArmProfile
*Beam General Section, elset=girderRigidarm2-9, poisson = 0.2, density=2549., section=CIRC
0.1
-1.,0.,1.
 6.9e+11, 2.875e+11,     1e-05
** Section: rigidArmSection  Profile: rigidArmProfile
*Beam General Section, elset=girderRigidarm1-8, poisson = 0.2, density=2549., section=CIRC
0.1
-1.,0.,1.
 6.9e+11, 2.875e+11,     1e-05
** Section: rigidArmSection  Profile: rigidArmProfile
*Beam General Section, elset=girderRigidarm2-8, poisson = 0.2, density=2549., section=CIRC
0.1
-1.,0.,1.
 6.9e+11, 2.875e+11,     1e-05
** Section: rigidArmSection  Profile: rigidArmProfile
*Beam General Section, elset=girderRigidarm1-7, poisson = 0.2, density=2549., section=CIRC
0.1
-1.,0.,1.
 6.9e+11, 2.875e+11,     1e-05
** Section: rigidArmSection  Profile: rigidArmProfile
*Beam General Section, elset=girderRigidarm2-7, poisson = 0.2, density=2549., section=CIRC
0.1
-1.,0.,1.
 6.9e+11, 2.875e+11,     1e-05
** Section: rigidArmSection  Profile: rigidArmProfile
*Beam General Section, elset=girderRigidarm1-6, poisson = 0.2, density=2549., section=CIRC
0.1
-1.,0.,1.
 6.9e+11, 2.875e+11,     1e-05
** Section: rigidArmSection  Profile: rigidArmProfile
*Beam General Section, elset=girderRigidarm2-6, poisson = 0.2, density=2549., section=CIRC
0.1
-1.,0.,1.
 6.9e+11, 2.875e+11,     1e-05
** Section: rigidArmSection  Profile: rigidArmProfile
*Beam General Section, elset=girderRigidarm1-5, poisson = 0.2, density=2549., section=CIRC
0.1
-1.,0.,1.
 6.9e+11, 2.875e+11,     1e-05
** Section: rigidArmSection  Profile: rigidArmProfile
*Beam General Section, elset=girderRigidarm2-5, poisson = 0.2, density=2549., section=CIRC
0.1
-1.,0.,1.
 6.9e+11, 2.875e+11,     1e-05
** Section: rigidArmSection  Profile: rigidArmProfile
*Beam General Section, elset=girderRigidarm1-4, poisson = 0.2, density=2549., section=CIRC
0.1
-1.,0.,1.
 6.9e+11, 2.875e+11,     1e-05
** Section: rigidArmSection  Profile: rigidArmProfile
*Beam General Section, elset=girderRigidarm2-4, poisson = 0.2, density=2549., section=CIRC
0.1
-1.,0.,1.
 6.9e+11, 2.875e+11,     1e-05
** Section: rigidArmSection  Profile: rigidArmProfile
*Beam General Section, elset=girderRigidarm1-3, poisson = 0.2, density=2549., section=CIRC
0.1
-1.,0.,1.
 6.9e+11, 2.875e+11,     1e-05
** Section: rigidArmSection  Profile: rigidArmProfile
*Beam General Section, elset=girderRigidarm2-3, poisson = 0.2, density=2549., section=CIRC
0.1
-1.,0.,1.
 6.9e+11, 2.875e+11,     1e-05
** Section: rigidArmSection  Profile: rigidArmProfile
*Beam General Section, elset=girderRigidarm1-2, poisson = 0.2, density=2549., section=CIRC
0.1
-1.,0.,1.
 6.9e+11, 2.875e+11,     1e-05
** Section: rigidArmSection  Profile: rigidArmProfile
*Beam General Section, elset=girderRigidarm2-2, poisson = 0.2, density=2549., section=CIRC
0.1
-1.,0.,1.
 6.9e+11, 2.875e+11,     1e-05
** Section: rigidArmSection  Profile: rigidArmProfile
*Beam General Section, elset=girderRigidarm1-1, poisson = 0.2, density=2549., section=CIRC
0.1
-1.,0.,1.
 6.9e+11, 2.875e+11,     1e-05
** Section: rigidArmSection  Profile: rigidArmProfile
*Beam General Section, elset=girderRigidarm2-1, poisson = 0.2, density=2549., section=CIRC
0.1
-1.,0.,1.
 6.9e+11, 2.875e+11,     1e-05
** Section: downTowerSection  Profile: downTowerProfile
*Beam General Section, elset=downTowerSet2-2, poisson = 0.2, density=2549., section=RECT
1.3, 1.6
0.,0.,-1.
 3.45e+10, 1.4375e+10,      1e-05
** Section: cableSection
*Solid Section, elset=cableSet1-19, material=cableMaterial
0.0359345,
** Section: cableSection
*Solid Section, elset=cableSet1-18, material=cableMaterial
0.0359345,
** Section: cableSection
*Solid Section, elset=cableSet1-17, material=cableMaterial
0.0359345,
** Section: cableSection
*Solid Section, elset=cableSet1-16, material=cableMaterial
0.0359345,
** Section: cableSection
*Solid Section, elset=cableSet1-15, material=cableMaterial
0.0359345,
** Section: cableSection
*Solid Section, elset=cableSet1-14, material=cableMaterial
0.0359345,
** Section: cableSection
*Solid Section, elset=cableSet1-13, material=cableMaterial
0.0359345,
** Section: cableSection
*Solid Section, elset=cableSet1-12, material=cableMaterial
0.0359345,
** Section: cableSection
*Solid Section, elset=cableSet1-11, material=cableMaterial
0.0359345,
** Section: cableSection
*Solid Section, elset=cableSet1-10, material=cableMaterial
0.0359345,
** Section: cableSection
*Solid Section, elset=cableSet1-9, material=cableMaterial
0.0359345,
** Section: cableSection
*Solid Section, elset=cableSet1-8, material=cableMaterial
0.0359345,
** Section: cableSection
*Solid Section, elset=cableSet1-7, material=cableMaterial
0.0359345,
** Section: cableSection
*Solid Section, elset=cableSet1-6, material=cableMaterial
0.0359345,
** Section: cableSection
*Solid Section, elset=cableSet1-5, material=cableMaterial
0.0359345,
** Section: cableSection
*Solid Section, elset=cableSet1-4, material=cableMaterial
0.0359345,
** Section: cableSection
*Solid Section, elset=cableSet1-3, material=cableMaterial
0.0359345,
** Section: cableSection
*Solid Section, elset=cableSet1-2, material=cableMaterial
0.0359345,
** Section: cableSection
*Solid Section, elset=cableSet1-1, material=cableMaterial
0.0359345,
** Section: downTowerSection  Profile: downTowerProfile
*Beam General Section, elset=downTowerSet2-1, poisson = 0.2, density=2549., section=RECT
1.3, 1.6
0.,0.,-1.
 3.45e+10, 1.4375e+10,      1e-05
** Section: suspenderSection
*Solid Section, elset=suspenderSet1-19, material=suspenderMaterial
0.00302335,
** Section: cableSection
*Solid Section, elset=cableSet1-22, material=cableMaterial
0.0359345,
** Section: suspenderSection
*Solid Section, elset=suspenderSet1-18, material=suspenderMaterial
0.00302335,
** Section: cableSection
*Solid Section, elset=cableSet1-21, material=cableMaterial
0.0359345,
** Section: suspenderSection
*Solid Section, elset=suspenderSet1-17, material=suspenderMaterial
0.00302335,
** Section: cableSection
*Solid Section, elset=cableSet1-20, material=cableMaterial
0.0359345,
** Section: suspenderSection
*Solid Section, elset=suspenderSet1-16, material=suspenderMaterial
0.00302335,
** Section: suspenderSection
*Solid Section, elset=suspenderSet1-15, material=suspenderMaterial
0.00302335,
** Section: suspenderSection
*Solid Section, elset=suspenderSet1-14, material=suspenderMaterial
0.00302335,
** Section: suspenderSection
*Solid Section, elset=suspenderSet1-13, material=suspenderMaterial
0.00302335,
** Section: suspenderSection
*Solid Section, elset=suspenderSet1-12, material=suspenderMaterial
0.00302335,
** Section: suspenderSection
*Solid Section, elset=suspenderSet1-11, material=suspenderMaterial
0.00302335,
** Section: suspenderSection
*Solid Section, elset=suspenderSet1-10, material=suspenderMaterial
0.00302335,
** Section: suspenderSection
*Solid Section, elset=suspenderSet1-9, material=suspenderMaterial
0.00302335,
** Section: suspenderSection
*Solid Section, elset=suspenderSet1-8, material=suspenderMaterial
0.00302335,
** Section: suspenderSection
*Solid Section, elset=suspenderSet1-7, material=suspenderMaterial
0.00302335,
** Section: suspenderSection
*Solid Section, elset=suspenderSet1-6, material=suspenderMaterial
0.00302335,
** Section: suspenderSection
*Solid Section, elset=suspenderSet1-5, material=suspenderMaterial
0.00302335,
** Section: suspenderSection
*Solid Section, elset=suspenderSet1-4, material=suspenderMaterial
0.00302335,
** Section: suspenderSection
*Solid Section, elset=suspenderSet1-3, material=suspenderMaterial
0.00302335,
** Section: suspenderSection
*Solid Section, elset=suspenderSet1-2, material=suspenderMaterial
0.00302335,
** Section: suspenderSection
*Solid Section, elset=suspenderSet1-1, material=suspenderMaterial
0.00302335,
*End Part
**  
**
** ASSEMBLY
**
*Assembly, name=Assembly
**  
*Instance, name=PartAll-1, part=PartAll
*End Instance
**  
*Node
      1,          10.,   8.13000011,           0.
*Node
      2,          15.,   8.36750031,           0.
*Node
      3,          20.,   8.57999992,           0.
*Node
      4,          30.,   8.93000031,           0.
*Node
      5,          35.,   9.06750011,           0.
*Node
      6,          40.,   9.18000031,           0.
*Node
      7,          45.,   9.26749992,           0.
*Node
      8,          50.,   9.32999992,           0.
*Node
      9,          55.,   9.36750031,           0.
*Node
     10,          60.,   9.38000011,           0.
*Node
     11,          65.,   9.36750031,           0.
*Node
     12,          70.,   9.32999992,           0.
*Node
     13,          75.,   9.26749992,           0.
*Node
     14,          80.,   9.18000031,           0.
*Node
     15,          85.,   9.06750011,           0.
*Node
     16,          90.,   8.93000031,           0.
*Node
     17,         100.,   8.57999992,           0.
*Node
     18,         105.,   8.36750031,           0.
*Node
     19,         110.,   8.13000011,           0.
*Nset, nset=_PickedSet147, internal
 1,
*Nset, nset=_PickedSet148, internal
 2,
*Nset, nset=_PickedSet149, internal
 3,
*Nset, nset=_PickedSet150, internal
 4,
*Nset, nset=_PickedSet151, internal
 5,
*Nset, nset=_PickedSet152, internal
 6,
*Nset, nset=_PickedSet153, internal
 7,
*Nset, nset=_PickedSet154, internal
 8,
*Nset, nset=_PickedSet155, internal
 9,
*Nset, nset=_PickedSet156, internal
 10,
*Nset, nset=_PickedSet157, internal
 11,
*Nset, nset=_PickedSet158, internal
 12,
*Nset, nset=_PickedSet159, internal
 13,
*Nset, nset=_PickedSet160, internal
 14,
*Nset, nset=_PickedSet161, internal
 15,
*Nset, nset=_PickedSet162, internal
 16,
*Nset, nset=_PickedSet163, internal
 17,
*Nset, nset=_PickedSet164, internal
 18,
*Nset, nset=_PickedSet165, internal
 19,
*Nset, nset=_PickedSet166, internal, instance=PartAll-1
 109,
*Nset, nset=_PickedSet167, internal, instance=PartAll-1
 112,
*Nset, nset=_PickedSet168, internal, instance=PartAll-1
 26,
*Nset, nset=_PickedSet169, internal, instance=PartAll-1
 5,
*Nset, nset=_PickedSet170, internal, instance=PartAll-1
 68,
*Nset, nset=_PickedSet171, internal, instance=PartAll-1
 51,
*Nset, nset=_PickedSet172, internal, instance=PartAll-1
 110,
*Nset, nset=_PickedSet173, internal, instance=PartAll-1
 91,
*Nset, nset=_PickedSet174, internal, instance=PartAll-1
 45,
*Nset, nset=_PickedSet175, internal, instance=PartAll-1
 4,
** Constraint: Constraint-Rigidbody-1
*Rigid Body, ref node=_PickedSet147, elset=PartAll-1.girderRigidarmWhole1
** Constraint: Constraint-Rigidbody-2
*Rigid Body, ref node=_PickedSet148, elset=PartAll-1.girderRigidarmWhole2
** Constraint: Constraint-Rigidbody-3
*Rigid Body, ref node=_PickedSet149, elset=PartAll-1.girderRigidarmWhole3
** Constraint: Constraint-Rigidbody-4
*Rigid Body, ref node=_PickedSet150, elset=PartAll-1.girderRigidarmWhole4
** Constraint: Constraint-Rigidbody-5
*Rigid Body, ref node=_PickedSet151, elset=PartAll-1.girderRigidarmWhole5
** Constraint: Constraint-Rigidbody-6
*Rigid Body, ref node=_PickedSet152, elset=PartAll-1.girderRigidarmWhole6
** Constraint: Constraint-Rigidbody-7
*Rigid Body, ref node=_PickedSet153, elset=PartAll-1.girderRigidarmWhole7
** Constraint: Constraint-Rigidbody-8
*Rigid Body, ref node=_PickedSet154, elset=PartAll-1.girderRigidarmWhole8
** Constraint: Constraint-Rigidbody-9
*Rigid Body, ref node=_PickedSet155, elset=PartAll-1.girderRigidarmWhole9
** Constraint: Constraint-Rigidbody-10
*Rigid Body, ref node=_PickedSet156, elset=PartAll-1.girderRigidarmWhole10
** Constraint: Constraint-Rigidbody-11
*Rigid Body, ref node=_PickedSet157, elset=PartAll-1.girderRigidarmWhole11
** Constraint: Constraint-Rigidbody-12
*Rigid Body, ref node=_PickedSet158, elset=PartAll-1.girderRigidarmWhole12
** Constraint: Constraint-Rigidbody-13
*Rigid Body, ref node=_PickedSet159, elset=PartAll-1.girderRigidarmWhole13
** Constraint: Constraint-Rigidbody-14
*Rigid Body, ref node=_PickedSet160, elset=PartAll-1.girderRigidarmWhole14
** Constraint: Constraint-Rigidbody-15
*Rigid Body, ref node=_PickedSet161, elset=PartAll-1.girderRigidarmWhole15
** Constraint: Constraint-Rigidbody-16
*Rigid Body, ref node=_PickedSet162, elset=PartAll-1.girderRigidarmWhole16
** Constraint: Constraint-Rigidbody-17
*Rigid Body, ref node=_PickedSet163, elset=PartAll-1.girderRigidarmWhole17
** Constraint: Constraint-Rigidbody-18
*Rigid Body, ref node=_PickedSet164, elset=PartAll-1.girderRigidarmWhole18
** Constraint: Constraint-Rigidbody-19
*Rigid Body, ref node=_PickedSet165, elset=PartAll-1.girderRigidarmWhole19
*End Assembly
** 
** MATERIALS
** 
*Material, name=C50Material
*Density
2549.,
*Elastic
 3.45e+10, 0.2
*Material, name=cableMaterial
*Density
 8518.37,
*Elastic
 2e+11, 0.3
*No Compression
*Material, name=suspenderMaterial
*Density
9050.,
*Elastic
 2e+11, 0.3
*No Compression
** 
** PREDEFINED FIELDS
** 
** Name: cablePredefinedField1-1   Type: Stress
*Initial Conditions, type=STRESS
PartAll-1.cableSet1-1, 1.12647e+08, 0., 0., 
** Name: cablePredefinedField1-2   Type: Stress
*Initial Conditions, type=STRESS
PartAll-1.cableSet1-2, 1.17452e+08, 0., 0., 
** Name: cablePredefinedField1-3   Type: Stress
*Initial Conditions, type=STRESS
PartAll-1.cableSet1-3, 1.21131e+08, 0., 0., 
** Name: cablePredefinedField1-4   Type: Stress
*Initial Conditions, type=STRESS
PartAll-1.cableSet1-4, 1.27251e+08, 0., 0., 
** Name: cablePredefinedField1-5   Type: Stress
*Initial Conditions, type=STRESS
PartAll-1.cableSet1-5, 1.16933e+08, 0., 0., 
** Name: cablePredefinedField1-6   Type: Stress
*Initial Conditions, type=STRESS
PartAll-1.cableSet1-6, 1.12329e+08, 0., 0., 
** Name: cablePredefinedField1-7   Type: Stress
*Initial Conditions, type=STRESS
PartAll-1.cableSet1-7, 1.09779e+08, 0., 0., 
** Name: cablePredefinedField1-8   Type: Stress
*Initial Conditions, type=STRESS
PartAll-1.cableSet1-8, 1.07696e+08, 0., 0., 
** Name: cablePredefinedField1-9   Type: Stress
*Initial Conditions, type=STRESS
PartAll-1.cableSet1-9, 1.06109e+08, 0., 0., 
** Name: cablePredefinedField1-10   Type: Stress
*Initial Conditions, type=STRESS
PartAll-1.cableSet1-10, 1.05038e+08, 0., 0., 
** Name: cablePredefinedField1-11   Type: Stress
*Initial Conditions, type=STRESS
PartAll-1.cableSet1-11, 1.04498e+08, 0., 0., 
** Name: cablePredefinedField1-12   Type: Stress
*Initial Conditions, type=STRESS
PartAll-1.cableSet1-12, 1.04498e+08, 0., 0., 
** Name: cablePredefinedField1-13   Type: Stress
*Initial Conditions, type=STRESS
PartAll-1.cableSet1-13, 1.05038e+08, 0., 0., 
** Name: cablePredefinedField1-14   Type: Stress
*Initial Conditions, type=STRESS
PartAll-1.cableSet1-14, 1.06109e+08, 0., 0., 
** Name: cablePredefinedField1-15   Type: Stress
*Initial Conditions, type=STRESS
PartAll-1.cableSet1-15, 1.07697e+08, 0., 0., 
** Name: cablePredefinedField1-16   Type: Stress
*Initial Conditions, type=STRESS
PartAll-1.cableSet1-16, 1.09779e+08, 0., 0., 
** Name: cablePredefinedField1-17   Type: Stress
*Initial Conditions, type=STRESS
PartAll-1.cableSet1-17, 1.1233e+08, 0., 0., 
** Name: cablePredefinedField1-18   Type: Stress
*Initial Conditions, type=STRESS
PartAll-1.cableSet1-18, 1.16925e+08, 0., 0., 
** Name: cablePredefinedField1-19   Type: Stress
*Initial Conditions, type=STRESS
PartAll-1.cableSet1-19, 1.24921e+08, 0., 0., 
** Name: cablePredefinedField1-20   Type: Stress
*Initial Conditions, type=STRESS
PartAll-1.cableSet1-20, 1.18924e+08, 0., 0., 
** Name: cablePredefinedField1-21   Type: Stress
*Initial Conditions, type=STRESS
PartAll-1.cableSet1-21, 1.15311e+08, 0., 0., 
** Name: cablePredefinedField1-22   Type: Stress
*Initial Conditions, type=STRESS
PartAll-1.cableSet1-22, 1.10593e+08, 0., 0., 
** Name: cablePredefinedField2-1   Type: Stress
*Initial Conditions, type=STRESS
PartAll-1.cableSet2-1, 1.12652e+08, 0., 0., 
** Name: cablePredefinedField2-2   Type: Stress
*Initial Conditions, type=STRESS
PartAll-1.cableSet2-2, 1.17457e+08, 0., 0., 
** Name: cablePredefinedField2-3   Type: Stress
*Initial Conditions, type=STRESS
PartAll-1.cableSet2-3, 1.21136e+08, 0., 0., 
** Name: cablePredefinedField2-4   Type: Stress
*Initial Conditions, type=STRESS
PartAll-1.cableSet2-4, 1.27257e+08, 0., 0., 
** Name: cablePredefinedField2-5   Type: Stress
*Initial Conditions, type=STRESS
PartAll-1.cableSet2-5, 1.16938e+08, 0., 0., 
** Name: cablePredefinedField2-6   Type: Stress
*Initial Conditions, type=STRESS
PartAll-1.cableSet2-6, 1.12335e+08, 0., 0., 
** Name: cablePredefinedField2-7   Type: Stress
*Initial Conditions, type=STRESS
PartAll-1.cableSet2-7, 1.09784e+08, 0., 0., 
** Name: cablePredefinedField2-8   Type: Stress
*Initial Conditions, type=STRESS
PartAll-1.cableSet2-8, 1.07702e+08, 0., 0., 
** Name: cablePredefinedField2-9   Type: Stress
*Initial Conditions, type=STRESS
PartAll-1.cableSet2-9, 1.06114e+08, 0., 0., 
** Name: cablePredefinedField2-10   Type: Stress
*Initial Conditions, type=STRESS
PartAll-1.cableSet2-10, 1.05043e+08, 0., 0., 
** Name: cablePredefinedField2-11   Type: Stress
*Initial Conditions, type=STRESS
PartAll-1.cableSet2-11, 1.04503e+08, 0., 0., 
** Name: cablePredefinedField2-12   Type: Stress
*Initial Conditions, type=STRESS
PartAll-1.cableSet2-12, 1.04504e+08, 0., 0., 
** Name: cablePredefinedField2-13   Type: Stress
*Initial Conditions, type=STRESS
PartAll-1.cableSet2-13, 1.05043e+08, 0., 0., 
** Name: cablePredefinedField2-14   Type: Stress
*Initial Conditions, type=STRESS
PartAll-1.cableSet2-14, 1.06115e+08, 0., 0., 
** Name: cablePredefinedField2-15   Type: Stress
*Initial Conditions, type=STRESS
PartAll-1.cableSet2-15, 1.07702e+08, 0., 0., 
** Name: cablePredefinedField2-16   Type: Stress
*Initial Conditions, type=STRESS
PartAll-1.cableSet2-16, 1.09785e+08, 0., 0., 
** Name: cablePredefinedField2-17   Type: Stress
*Initial Conditions, type=STRESS
PartAll-1.cableSet2-17, 1.12335e+08, 0., 0., 
** Name: cablePredefinedField2-18   Type: Stress
*Initial Conditions, type=STRESS
PartAll-1.cableSet2-18, 1.16931e+08, 0., 0., 
** Name: cablePredefinedField2-19   Type: Stress
*Initial Conditions, type=STRESS
PartAll-1.cableSet2-19, 1.24928e+08, 0., 0., 
** Name: cablePredefinedField2-20   Type: Stress
*Initial Conditions, type=STRESS
PartAll-1.cableSet2-20, 1.18931e+08, 0., 0., 
** Name: cablePredefinedField2-21   Type: Stress
*Initial Conditions, type=STRESS
PartAll-1.cableSet2-21, 1.15318e+08, 0., 0., 
** Name: cablePredefinedField2-22   Type: Stress
*Initial Conditions, type=STRESS
PartAll-1.cableSet2-22, 1.106e+08, 0., 0., 
** Name: suspenderPredefinedField1-1   Type: Stress
*Initial Conditions, type=STRESS
PartAll-1.suspenderSet1-1, 1.30725e+08, 0., 0., 
** Name: suspenderPredefinedField1-2   Type: Stress
*Initial Conditions, type=STRESS
PartAll-1.suspenderSet1-2, 8.69613e+07, 0., 0., 
** Name: suspenderPredefinedField1-3   Type: Stress
*Initial Conditions, type=STRESS
PartAll-1.suspenderSet1-3, 1.30851e+08, 0., 0., 
** Name: suspenderPredefinedField1-4   Type: Stress
*Initial Conditions, type=STRESS
PartAll-1.suspenderSet1-4, 1.31406e+08, 0., 0., 
** Name: suspenderPredefinedField1-5   Type: Stress
*Initial Conditions, type=STRESS
PartAll-1.suspenderSet1-5, 8.74994e+07, 0., 0., 
** Name: suspenderPredefinedField1-6   Type: Stress
*Initial Conditions, type=STRESS
PartAll-1.suspenderSet1-6, 8.75787e+07, 0., 0., 
** Name: suspenderPredefinedField1-7   Type: Stress
*Initial Conditions, type=STRESS
PartAll-1.suspenderSet1-7, 8.75729e+07, 0., 0., 
** Name: suspenderPredefinedField1-8   Type: Stress
*Initial Conditions, type=STRESS
PartAll-1.suspenderSet1-8, 8.76365e+07, 0., 0., 
** Name: suspenderPredefinedField1-9   Type: Stress
*Initial Conditions, type=STRESS
PartAll-1.suspenderSet1-9, 8.76331e+07, 0., 0., 
** Name: suspenderPredefinedField1-10   Type: Stress
*Initial Conditions, type=STRESS
PartAll-1.suspenderSet1-10, 8.76339e+07, 0., 0., 
** Name: suspenderPredefinedField1-11   Type: Stress
*Initial Conditions, type=STRESS
PartAll-1.suspenderSet1-11, 8.76315e+07, 0., 0., 
** Name: suspenderPredefinedField1-12   Type: Stress
*Initial Conditions, type=STRESS
PartAll-1.suspenderSet1-12, 8.76333e+07, 0., 0., 
** Name: suspenderPredefinedField1-13   Type: Stress
*Initial Conditions, type=STRESS
PartAll-1.suspenderSet1-13, 8.75677e+07, 0., 0., 
** Name: suspenderPredefinedField1-14   Type: Stress
*Initial Conditions, type=STRESS
PartAll-1.suspenderSet1-14, 8.75702e+07, 0., 0., 
** Name: suspenderPredefinedField1-15   Type: Stress
*Initial Conditions, type=STRESS
PartAll-1.suspenderSet1-15, 8.7506e+07, 0., 0., 
** Name: suspenderPredefinedField1-16   Type: Stress
*Initial Conditions, type=STRESS
PartAll-1.suspenderSet1-16, 1.31197e+08, 0., 0., 
** Name: suspenderPredefinedField1-17   Type: Stress
*Initial Conditions, type=STRESS
PartAll-1.suspenderSet1-17, 1.28183e+08, 0., 0., 
** Name: suspenderPredefinedField1-18   Type: Stress
*Initial Conditions, type=STRESS
PartAll-1.suspenderSet1-18, 8.53503e+07, 0., 0., 
** Name: suspenderPredefinedField1-19   Type: Stress
*Initial Conditions, type=STRESS
PartAll-1.suspenderSet1-19, 1.28285e+08, 0., 0., 
** Name: suspenderPredefinedField2-1   Type: Stress
*Initial Conditions, type=STRESS
PartAll-1.suspenderSet2-1, 1.30731e+08, 0., 0., 
** Name: suspenderPredefinedField2-2   Type: Stress
*Initial Conditions, type=STRESS
PartAll-1.suspenderSet2-2, 8.69652e+07, 0., 0., 
** Name: suspenderPredefinedField2-3   Type: Stress
*Initial Conditions, type=STRESS
PartAll-1.suspenderSet2-3, 1.30857e+08, 0., 0., 
** Name: suspenderPredefinedField2-4   Type: Stress
*Initial Conditions, type=STRESS
PartAll-1.suspenderSet2-4, 1.31413e+08, 0., 0., 
** Name: suspenderPredefinedField2-5   Type: Stress
*Initial Conditions, type=STRESS
PartAll-1.suspenderSet2-5, 8.75039e+07, 0., 0., 
** Name: suspenderPredefinedField2-6   Type: Stress
*Initial Conditions, type=STRESS
PartAll-1.suspenderSet2-6, 8.75832e+07, 0., 0., 
** Name: suspenderPredefinedField2-7   Type: Stress
*Initial Conditions, type=STRESS
PartAll-1.suspenderSet2-7, 8.75774e+07, 0., 0., 
** Name: suspenderPredefinedField2-8   Type: Stress
*Initial Conditions, type=STRESS
PartAll-1.suspenderSet2-8, 8.7641e+07, 0., 0., 
** Name: suspenderPredefinedField2-9   Type: Stress
*Initial Conditions, type=STRESS
PartAll-1.suspenderSet2-9, 8.76375e+07, 0., 0., 
** Name: suspenderPredefinedField2-10   Type: Stress
*Initial Conditions, type=STRESS
PartAll-1.suspenderSet2-10, 8.76384e+07, 0., 0., 
** Name: suspenderPredefinedField2-11   Type: Stress
*Initial Conditions, type=STRESS
PartAll-1.suspenderSet2-11, 8.7636e+07, 0., 0., 
** Name: suspenderPredefinedField2-12   Type: Stress
*Initial Conditions, type=STRESS
PartAll-1.suspenderSet2-12, 8.76378e+07, 0., 0., 
** Name: suspenderPredefinedField2-13   Type: Stress
*Initial Conditions, type=STRESS
PartAll-1.suspenderSet2-13, 8.75722e+07, 0., 0., 
** Name: suspenderPredefinedField2-14   Type: Stress
*Initial Conditions, type=STRESS
PartAll-1.suspenderSet2-14, 8.75747e+07, 0., 0., 
** Name: suspenderPredefinedField2-15   Type: Stress
*Initial Conditions, type=STRESS
PartAll-1.suspenderSet2-15, 8.75105e+07, 0., 0., 
** Name: suspenderPredefinedField2-16   Type: Stress
*Initial Conditions, type=STRESS
PartAll-1.suspenderSet2-16, 1.31203e+08, 0., 0., 
** Name: suspenderPredefinedField2-17   Type: Stress
*Initial Conditions, type=STRESS
PartAll-1.suspenderSet2-17, 1.28191e+08, 0., 0., 
** Name: suspenderPredefinedField2-18   Type: Stress
*Initial Conditions, type=STRESS
PartAll-1.suspenderSet2-18, 8.53556e+07, 0., 0., 
** Name: suspenderPredefinedField2-19   Type: Stress
*Initial Conditions, type=STRESS
PartAll-1.suspenderSet2-19, 1.28293e+08, 0., 0., 
** ----------------------------------------------------------------
** 
** STEP: beamStep
** 
*Step, name=beamStep, nlgeom=NO
*Static
1., 1., 1e-05, 1.
** 
** BOUNDARY CONDITIONS
** 
** Name: cableBC1-1 Type: Displacement/Rotation
*Boundary
_PickedSet166, 1, 1
_PickedSet166, 2, 2
_PickedSet166, 3, 3
_PickedSet166, 4, 4
_PickedSet166, 5, 5
_PickedSet166, 6, 6
** Name: cableBC1-2 Type: Displacement/Rotation
*Boundary
_PickedSet167, 1, 1
_PickedSet167, 2, 2
_PickedSet167, 3, 3
_PickedSet167, 4, 4
_PickedSet167, 5, 5
_PickedSet167, 6, 6
** Name: cableBC2-1 Type: Displacement/Rotation
*Boundary
_PickedSet168, 1, 1
_PickedSet168, 2, 2
_PickedSet168, 3, 3
_PickedSet168, 4, 4
_PickedSet168, 5, 5
_PickedSet168, 6, 6
** Name: cableBC2-2 Type: Displacement/Rotation
*Boundary
_PickedSet169, 1, 1
_PickedSet169, 2, 2
_PickedSet169, 3, 3
_PickedSet169, 4, 4
_PickedSet169, 5, 5
_PickedSet169, 6, 6
** Name: downTowerBC1-1 Type: Displacement/Rotation
*Boundary
_PickedSet170, 1, 1
_PickedSet170, 2, 2
_PickedSet170, 3, 3
_PickedSet170, 4, 4
_PickedSet170, 5, 5
_PickedSet170, 6, 6
** Name: downTowerBC1-2 Type: Displacement/Rotation
*Boundary
_PickedSet171, 1, 1
_PickedSet171, 2, 2
_PickedSet171, 3, 3
_PickedSet171, 4, 4
_PickedSet171, 5, 5
_PickedSet171, 6, 6
** Name: downTowerBC2-1 Type: Displacement/Rotation
*Boundary
_PickedSet172, 1, 1
_PickedSet172, 2, 2
_PickedSet172, 3, 3
_PickedSet172, 4, 4
_PickedSet172, 5, 5
_PickedSet172, 6, 6
** Name: downTowerBC2-2 Type: Displacement/Rotation
*Boundary
_PickedSet173, 1, 1
_PickedSet173, 2, 2
_PickedSet173, 3, 3
_PickedSet173, 4, 4
_PickedSet173, 5, 5
_PickedSet173, 6, 6
** Name: girderBC1 Type: Displacement/Rotation
*Boundary
_PickedSet174, 1, 1
_PickedSet174, 2, 2
_PickedSet174, 3, 3
_PickedSet174, 4, 4
_PickedSet174, 5, 5
_PickedSet174, 6, 6
** Name: girderBC2 Type: Displacement/Rotation
*Boundary
_PickedSet175, 1, 1
_PickedSet175, 2, 2
_PickedSet175, 3, 3
_PickedSet175, 4, 4
_PickedSet175, 5, 5
_PickedSet175, 6, 6
** 
** LOADS
** 
** Name: GravityLoad   Type: Gravity
*Dload
, GRAV, 9.8, 0., -1., 0.
** 
** OUTPUT REQUESTS
** 
*Restart, write, frequency=0
** 
** FIELD OUTPUT: F-Output-2
** 
*Output, field
*Node Output
CF, RF, U
*Element Output, directions=YES
LE, NFORC, PE, PEEQ, PEMAG, S, SF
*Contact Output
CDISP, CSTRESS
** 
** FIELD OUTPUT: F-Output-1
** 
*Output, field, variable=PRESELECT
** 
** HISTORY OUTPUT: H-Output-1
** 
*Output, history, variable=PRESELECT
*End Step
